// Parametrized windTunnel

//Run using:
//m4 -P blockMeshDict.m4 > blockMeshDict

//m4 definitions:

//Mathematical constants:


//m4 spec:


//plane A settlingChamberInlet


//plane B contractionInlet


//plane C testSectionInlet


//plane D diffuserInlet


//plane E fanInlet


//plane F fanOutlet


//plane z:


//spline:


/*--------------------------------*- C++ -*----------------------------------*\
| =========                 |                                                 |
| \\      /  F ield         | OpenFOAM: The Open Source CFD Toolbox           |
|  \\    /   O peration     | Version:  1.7.1                                 |
|   \\  /    A nd           | Web:      www.OpenFOAM.com                      |
|    \\/     M anipulation  |                                                 |
\*---------------------------------------------------------------------------*/
FoamFile
{
    version     2.0;
    format      ascii;

    root            "";
    case            "";
    instance        "";
    local           "";

    class       dictionary;
    object      blockMeshDict;
}
// * * * * * * * * * * * * * * * * * * * * * * * * * * * * * * * * * * * * * //

convertToMeters 1;

vertices        
(
	// front side
	(0 0 0) // Vertex A0 = 0 
	(1 0 0) // Vertex B0 = 1 
	(1 3.1415926 0) // Vertex B1 = 2 
	(0 3.1415926 0) // Vertex A1 = 3 

	// back side	
	(0 0 0.01) // Vertex A3 = 4 
	(1 0 0.01) // Vertex B3 = 5 
	(1 3.1415926 0.01) // Vertex B2 = 6 
	(0 3.1415926 0.01) // Vertex A2 = 7 

);

blocks          
(
    // stenosis domain	
    hex (0 1 2 3 4 5 6 7) (100 100 1) simpleGrading (1 1 1)
);

edges           
(
	spline 0 3 // left bc front
	(
(0.000000000000000000e+00 -4.999992566402426675e-02 0.000000000000000000e+00)
(1.010101010101010187e-02 -4.999987744694785879e-02 0.000000000000000000e+00)
(2.020202020202020374e-02 -4.999980000548138320e-02 0.000000000000000000e+00)
(3.030303030303030387e-02 -4.999967694168037241e-02 0.000000000000000000e+00)
(4.040404040404040747e-02 -4.999948344967093672e-02 0.000000000000000000e+00)
(5.050505050505051108e-02 -4.999918245205520889e-02 0.000000000000000000e+00)
(6.060606060606060774e-02 -4.999871919594024716e-02 0.000000000000000000e+00)
(7.070707070707071829e-02 -4.999801380888093533e-02 0.000000000000000000e+00)
(8.080808080808081495e-02 -4.999695120480235344e-02 0.000000000000000000e+00)
(9.090909090909091161e-02 -4.999536761823385189e-02 0.000000000000000000e+00)
(1.010101010101010222e-01 -4.999303294384325330e-02 0.000000000000000000e+00)
(1.111111111111111188e-01 -4.998962798456160761e-02 0.000000000000000000e+00)
(1.212121212121212155e-01 -4.998471568872610293e-02 0.000000000000000000e+00)
(1.313131313131313260e-01 -4.997770551375962239e-02 0.000000000000000000e+00)
(1.414141414141414366e-01 -4.996781022510365933e-02 0.000000000000000000e+00)
(1.515151515151515194e-01 -4.995399476151885648e-02 0.000000000000000000e+00)
(1.616161616161616299e-01 -4.993491730791755484e-02 0.000000000000000000e+00)
(1.717171717171717404e-01 -4.990886344519993717e-02 0.000000000000000000e+00)
(1.818181818181818232e-01 -4.987367521109480756e-02 0.000000000000000000e+00)
(1.919191919191919338e-01 -4.982667810405121134e-02 0.000000000000000000e+00)
(2.020202020202020443e-01 -4.976461046184383480e-02 0.000000000000000000e+00)
(2.121212121212121271e-01 -4.968356117857086751e-02 0.000000000000000000e+00)
(2.222222222222222376e-01 -4.957892327579408592e-02 0.000000000000000000e+00)
(2.323232323232323482e-01 -4.944537225803125741e-02 0.000000000000000000e+00)
(2.424242424242424310e-01 -4.927687926011829062e-02 0.000000000000000000e+00)
(2.525252525252525415e-01 -4.906676950329667830e-02 0.000000000000000000e+00)
(2.626262626262626521e-01 -4.880783627489785476e-02 0.000000000000000000e+00)
(2.727272727272727626e-01 -4.849251930415996586e-02 0.000000000000000000e+00)
(2.828282828282828731e-01 -4.811315384296800668e-02 0.000000000000000000e+00)
(2.929292929292929282e-01 -4.766229287966472494e-02 0.000000000000000000e+00)
(3.030303030303030387e-01 -4.713309974375935740e-02 0.000000000000000000e+00)
(3.131313131313131493e-01 -4.651980208038371256e-02 0.000000000000000000e+00)
(3.232323232323232598e-01 -4.581819113927414200e-02 0.000000000000000000e+00)
(3.333333333333333703e-01 -4.502614306036256675e-02 0.000000000000000000e+00)
(3.434343434343434809e-01 -4.414413202336277264e-02 0.000000000000000000e+00)
(3.535353535353535914e-01 -4.317569954062647208e-02 0.000000000000000000e+00)
(3.636363636363636465e-01 -4.212784061905781863e-02 0.000000000000000000e+00)
(3.737373737373737570e-01 -4.101126674375936421e-02 0.000000000000000000e+00)
(3.838383838383838675e-01 -3.984050822493880040e-02 0.000000000000000000e+00)
(3.939393939393939781e-01 -3.863382471843194998e-02 0.000000000000000000e+00)
(4.040404040404040886e-01 -3.741290265078803245e-02 0.000000000000000000e+00)
(4.141414141414141992e-01 -3.620233142649421920e-02 0.000000000000000000e+00)
(4.242424242424242542e-01 -3.502886583644501672e-02 0.000000000000000000e+00)
(4.343434343434343647e-01 -3.392049882952949402e-02 0.000000000000000000e+00)
(4.444444444444444753e-01 -3.290538529169353965e-02 0.000000000000000000e+00)
(4.545454545454545858e-01 -3.201067210936883733e-02 0.000000000000000000e+00)
(4.646464646464646964e-01 -3.126130102968048552e-02 0.000000000000000000e+00)
(4.747474747474748069e-01 -3.067885734552156310e-02 0.000000000000000000e+00)
(4.848484848484848619e-01 -3.028053829975405759e-02 0.000000000000000000e+00)
(4.949494949494949725e-01 -3.007830991543267857e-02 0.000000000000000000e+00)
(5.050505050505050830e-01 -3.007830991543267857e-02 0.000000000000000000e+00)
(5.151515151515152491e-01 -3.028053829975406105e-02 0.000000000000000000e+00)
(5.252525252525253041e-01 -3.067885734552156657e-02 0.000000000000000000e+00)
(5.353535353535353591e-01 -3.126130102968049940e-02 0.000000000000000000e+00)
(5.454545454545455252e-01 -3.201067210936883733e-02 0.000000000000000000e+00)
(5.555555555555555802e-01 -3.290538529169353965e-02 0.000000000000000000e+00)
(5.656565656565657463e-01 -3.392049882952950790e-02 0.000000000000000000e+00)
(5.757575757575758013e-01 -3.502886583644501672e-02 0.000000000000000000e+00)
(5.858585858585858563e-01 -3.620233142649422614e-02 0.000000000000000000e+00)
(5.959595959595960224e-01 -3.741290265078804633e-02 0.000000000000000000e+00)
(6.060606060606060774e-01 -3.863382471843195692e-02 0.000000000000000000e+00)
(6.161616161616162435e-01 -3.984050822493881427e-02 0.000000000000000000e+00)
(6.262626262626262985e-01 -4.101126674375937808e-02 0.000000000000000000e+00)
(6.363636363636364646e-01 -4.212784061905782557e-02 0.000000000000000000e+00)
(6.464646464646465196e-01 -4.317569954062648596e-02 0.000000000000000000e+00)
(6.565656565656565746e-01 -4.414413202336277264e-02 0.000000000000000000e+00)
(6.666666666666667407e-01 -4.502614306036257369e-02 0.000000000000000000e+00)
(6.767676767676767957e-01 -4.581819113927414200e-02 0.000000000000000000e+00)
(6.868686868686869618e-01 -4.651980208038371950e-02 0.000000000000000000e+00)
(6.969696969696970168e-01 -4.713309974375935740e-02 0.000000000000000000e+00)
(7.070707070707071829e-01 -4.766229287966473188e-02 0.000000000000000000e+00)
(7.171717171717172379e-01 -4.811315384296800668e-02 0.000000000000000000e+00)
(7.272727272727272929e-01 -4.849251930415997280e-02 0.000000000000000000e+00)
(7.373737373737374590e-01 -4.880783627489786169e-02 0.000000000000000000e+00)
(7.474747474747475140e-01 -4.906676950329667830e-02 0.000000000000000000e+00)
(7.575757575757576801e-01 -4.927687926011829755e-02 0.000000000000000000e+00)
(7.676767676767677351e-01 -4.944537225803125741e-02 0.000000000000000000e+00)
(7.777777777777777901e-01 -4.957892327579408592e-02 0.000000000000000000e+00)
(7.878787878787879562e-01 -4.968356117857086751e-02 0.000000000000000000e+00)
(7.979797979797980112e-01 -4.976461046184383480e-02 0.000000000000000000e+00)
(8.080808080808081773e-01 -4.982667810405121828e-02 0.000000000000000000e+00)
(8.181818181818182323e-01 -4.987367521109480756e-02 0.000000000000000000e+00)
(8.282828282828283983e-01 -4.990886344519993717e-02 0.000000000000000000e+00)
(8.383838383838384534e-01 -4.993491730791755484e-02 0.000000000000000000e+00)
(8.484848484848485084e-01 -4.995399476151885648e-02 0.000000000000000000e+00)
(8.585858585858586745e-01 -4.996781022510365933e-02 0.000000000000000000e+00)
(8.686868686868687295e-01 -4.997770551375962239e-02 0.000000000000000000e+00)
(8.787878787878788955e-01 -4.998471568872610293e-02 0.000000000000000000e+00)
(8.888888888888889506e-01 -4.998962798456160761e-02 0.000000000000000000e+00)
(8.989898989898991166e-01 -4.999303294384325330e-02 0.000000000000000000e+00)
(9.090909090909091717e-01 -4.999536761823385189e-02 0.000000000000000000e+00)
(9.191919191919192267e-01 -4.999695120480235344e-02 0.000000000000000000e+00)
(9.292929292929293927e-01 -4.999801380888093533e-02 0.000000000000000000e+00)
(9.393939393939394478e-01 -4.999871919594024716e-02 0.000000000000000000e+00)
(9.494949494949496138e-01 -4.999918245205520889e-02 0.000000000000000000e+00)
(9.595959595959596689e-01 -4.999948344967093672e-02 0.000000000000000000e+00)
(9.696969696969697239e-01 -4.999967694168037241e-02 0.000000000000000000e+00)
(9.797979797979798899e-01 -4.999980000548138320e-02 0.000000000000000000e+00)
(9.898989898989899450e-01 -4.999987744694785879e-02 0.000000000000000000e+00)
(1.000000000000000000e+00 -4.999992566402426675e-02 0.000000000000000000e+00)
	)
	
	spline 4 7 // left bc back
	(
(0.000000000000000000e+00 -4.999992566402426675e-02 1.000000000000000021e-02)
(1.010101010101010187e-02 -4.999987744694785879e-02 1.000000000000000021e-02)
(2.020202020202020374e-02 -4.999980000548138320e-02 1.000000000000000021e-02)
(3.030303030303030387e-02 -4.999967694168037241e-02 1.000000000000000021e-02)
(4.040404040404040747e-02 -4.999948344967093672e-02 1.000000000000000021e-02)
(5.050505050505051108e-02 -4.999918245205520889e-02 1.000000000000000021e-02)
(6.060606060606060774e-02 -4.999871919594024716e-02 1.000000000000000021e-02)
(7.070707070707071829e-02 -4.999801380888093533e-02 1.000000000000000021e-02)
(8.080808080808081495e-02 -4.999695120480235344e-02 1.000000000000000021e-02)
(9.090909090909091161e-02 -4.999536761823385189e-02 1.000000000000000021e-02)
(1.010101010101010222e-01 -4.999303294384325330e-02 1.000000000000000021e-02)
(1.111111111111111188e-01 -4.998962798456160761e-02 1.000000000000000021e-02)
(1.212121212121212155e-01 -4.998471568872610293e-02 1.000000000000000021e-02)
(1.313131313131313260e-01 -4.997770551375962239e-02 1.000000000000000021e-02)
(1.414141414141414366e-01 -4.996781022510365933e-02 1.000000000000000021e-02)
(1.515151515151515194e-01 -4.995399476151885648e-02 1.000000000000000021e-02)
(1.616161616161616299e-01 -4.993491730791755484e-02 1.000000000000000021e-02)
(1.717171717171717404e-01 -4.990886344519993717e-02 1.000000000000000021e-02)
(1.818181818181818232e-01 -4.987367521109480756e-02 1.000000000000000021e-02)
(1.919191919191919338e-01 -4.982667810405121134e-02 1.000000000000000021e-02)
(2.020202020202020443e-01 -4.976461046184383480e-02 1.000000000000000021e-02)
(2.121212121212121271e-01 -4.968356117857086751e-02 1.000000000000000021e-02)
(2.222222222222222376e-01 -4.957892327579408592e-02 1.000000000000000021e-02)
(2.323232323232323482e-01 -4.944537225803125741e-02 1.000000000000000021e-02)
(2.424242424242424310e-01 -4.927687926011829062e-02 1.000000000000000021e-02)
(2.525252525252525415e-01 -4.906676950329667830e-02 1.000000000000000021e-02)
(2.626262626262626521e-01 -4.880783627489785476e-02 1.000000000000000021e-02)
(2.727272727272727626e-01 -4.849251930415996586e-02 1.000000000000000021e-02)
(2.828282828282828731e-01 -4.811315384296800668e-02 1.000000000000000021e-02)
(2.929292929292929282e-01 -4.766229287966472494e-02 1.000000000000000021e-02)
(3.030303030303030387e-01 -4.713309974375935740e-02 1.000000000000000021e-02)
(3.131313131313131493e-01 -4.651980208038371256e-02 1.000000000000000021e-02)
(3.232323232323232598e-01 -4.581819113927414200e-02 1.000000000000000021e-02)
(3.333333333333333703e-01 -4.502614306036256675e-02 1.000000000000000021e-02)
(3.434343434343434809e-01 -4.414413202336277264e-02 1.000000000000000021e-02)
(3.535353535353535914e-01 -4.317569954062647208e-02 1.000000000000000021e-02)
(3.636363636363636465e-01 -4.212784061905781863e-02 1.000000000000000021e-02)
(3.737373737373737570e-01 -4.101126674375936421e-02 1.000000000000000021e-02)
(3.838383838383838675e-01 -3.984050822493880040e-02 1.000000000000000021e-02)
(3.939393939393939781e-01 -3.863382471843194998e-02 1.000000000000000021e-02)
(4.040404040404040886e-01 -3.741290265078803245e-02 1.000000000000000021e-02)
(4.141414141414141992e-01 -3.620233142649421920e-02 1.000000000000000021e-02)
(4.242424242424242542e-01 -3.502886583644501672e-02 1.000000000000000021e-02)
(4.343434343434343647e-01 -3.392049882952949402e-02 1.000000000000000021e-02)
(4.444444444444444753e-01 -3.290538529169353965e-02 1.000000000000000021e-02)
(4.545454545454545858e-01 -3.201067210936883733e-02 1.000000000000000021e-02)
(4.646464646464646964e-01 -3.126130102968048552e-02 1.000000000000000021e-02)
(4.747474747474748069e-01 -3.067885734552156310e-02 1.000000000000000021e-02)
(4.848484848484848619e-01 -3.028053829975405759e-02 1.000000000000000021e-02)
(4.949494949494949725e-01 -3.007830991543267857e-02 1.000000000000000021e-02)
(5.050505050505050830e-01 -3.007830991543267857e-02 1.000000000000000021e-02)
(5.151515151515152491e-01 -3.028053829975406105e-02 1.000000000000000021e-02)
(5.252525252525253041e-01 -3.067885734552156657e-02 1.000000000000000021e-02)
(5.353535353535353591e-01 -3.126130102968049940e-02 1.000000000000000021e-02)
(5.454545454545455252e-01 -3.201067210936883733e-02 1.000000000000000021e-02)
(5.555555555555555802e-01 -3.290538529169353965e-02 1.000000000000000021e-02)
(5.656565656565657463e-01 -3.392049882952950790e-02 1.000000000000000021e-02)
(5.757575757575758013e-01 -3.502886583644501672e-02 1.000000000000000021e-02)
(5.858585858585858563e-01 -3.620233142649422614e-02 1.000000000000000021e-02)
(5.959595959595960224e-01 -3.741290265078804633e-02 1.000000000000000021e-02)
(6.060606060606060774e-01 -3.863382471843195692e-02 1.000000000000000021e-02)
(6.161616161616162435e-01 -3.984050822493881427e-02 1.000000000000000021e-02)
(6.262626262626262985e-01 -4.101126674375937808e-02 1.000000000000000021e-02)
(6.363636363636364646e-01 -4.212784061905782557e-02 1.000000000000000021e-02)
(6.464646464646465196e-01 -4.317569954062648596e-02 1.000000000000000021e-02)
(6.565656565656565746e-01 -4.414413202336277264e-02 1.000000000000000021e-02)
(6.666666666666667407e-01 -4.502614306036257369e-02 1.000000000000000021e-02)
(6.767676767676767957e-01 -4.581819113927414200e-02 1.000000000000000021e-02)
(6.868686868686869618e-01 -4.651980208038371950e-02 1.000000000000000021e-02)
(6.969696969696970168e-01 -4.713309974375935740e-02 1.000000000000000021e-02)
(7.070707070707071829e-01 -4.766229287966473188e-02 1.000000000000000021e-02)
(7.171717171717172379e-01 -4.811315384296800668e-02 1.000000000000000021e-02)
(7.272727272727272929e-01 -4.849251930415997280e-02 1.000000000000000021e-02)
(7.373737373737374590e-01 -4.880783627489786169e-02 1.000000000000000021e-02)
(7.474747474747475140e-01 -4.906676950329667830e-02 1.000000000000000021e-02)
(7.575757575757576801e-01 -4.927687926011829755e-02 1.000000000000000021e-02)
(7.676767676767677351e-01 -4.944537225803125741e-02 1.000000000000000021e-02)
(7.777777777777777901e-01 -4.957892327579408592e-02 1.000000000000000021e-02)
(7.878787878787879562e-01 -4.968356117857086751e-02 1.000000000000000021e-02)
(7.979797979797980112e-01 -4.976461046184383480e-02 1.000000000000000021e-02)
(8.080808080808081773e-01 -4.982667810405121828e-02 1.000000000000000021e-02)
(8.181818181818182323e-01 -4.987367521109480756e-02 1.000000000000000021e-02)
(8.282828282828283983e-01 -4.990886344519993717e-02 1.000000000000000021e-02)
(8.383838383838384534e-01 -4.993491730791755484e-02 1.000000000000000021e-02)
(8.484848484848485084e-01 -4.995399476151885648e-02 1.000000000000000021e-02)
(8.585858585858586745e-01 -4.996781022510365933e-02 1.000000000000000021e-02)
(8.686868686868687295e-01 -4.997770551375962239e-02 1.000000000000000021e-02)
(8.787878787878788955e-01 -4.998471568872610293e-02 1.000000000000000021e-02)
(8.888888888888889506e-01 -4.998962798456160761e-02 1.000000000000000021e-02)
(8.989898989898991166e-01 -4.999303294384325330e-02 1.000000000000000021e-02)
(9.090909090909091717e-01 -4.999536761823385189e-02 1.000000000000000021e-02)
(9.191919191919192267e-01 -4.999695120480235344e-02 1.000000000000000021e-02)
(9.292929292929293927e-01 -4.999801380888093533e-02 1.000000000000000021e-02)
(9.393939393939394478e-01 -4.999871919594024716e-02 1.000000000000000021e-02)
(9.494949494949496138e-01 -4.999918245205520889e-02 1.000000000000000021e-02)
(9.595959595959596689e-01 -4.999948344967093672e-02 1.000000000000000021e-02)
(9.696969696969697239e-01 -4.999967694168037241e-02 1.000000000000000021e-02)
(9.797979797979798899e-01 -4.999980000548138320e-02 1.000000000000000021e-02)
(9.898989898989899450e-01 -4.999987744694785879e-02 1.000000000000000021e-02)
(1.000000000000000000e+00 -4.999992566402426675e-02 1.000000000000000021e-02)
	)

	spline 1 2 // right bc front
	(
(0.000000000000000000e+00 4.999992566402426675e-02 0.000000000000000000e+00)
(1.010101010101010187e-02 4.999987744694785879e-02 0.000000000000000000e+00)
(2.020202020202020374e-02 4.999980000548138320e-02 0.000000000000000000e+00)
(3.030303030303030387e-02 4.999967694168037241e-02 0.000000000000000000e+00)
(4.040404040404040747e-02 4.999948344967093672e-02 0.000000000000000000e+00)
(5.050505050505051108e-02 4.999918245205520889e-02 0.000000000000000000e+00)
(6.060606060606060774e-02 4.999871919594024716e-02 0.000000000000000000e+00)
(7.070707070707071829e-02 4.999801380888093533e-02 0.000000000000000000e+00)
(8.080808080808081495e-02 4.999695120480235344e-02 0.000000000000000000e+00)
(9.090909090909091161e-02 4.999536761823385189e-02 0.000000000000000000e+00)
(1.010101010101010222e-01 4.999303294384325330e-02 0.000000000000000000e+00)
(1.111111111111111188e-01 4.998962798456160761e-02 0.000000000000000000e+00)
(1.212121212121212155e-01 4.998471568872610293e-02 0.000000000000000000e+00)
(1.313131313131313260e-01 4.997770551375962239e-02 0.000000000000000000e+00)
(1.414141414141414366e-01 4.996781022510365933e-02 0.000000000000000000e+00)
(1.515151515151515194e-01 4.995399476151885648e-02 0.000000000000000000e+00)
(1.616161616161616299e-01 4.993491730791755484e-02 0.000000000000000000e+00)
(1.717171717171717404e-01 4.990886344519993717e-02 0.000000000000000000e+00)
(1.818181818181818232e-01 4.987367521109480756e-02 0.000000000000000000e+00)
(1.919191919191919338e-01 4.982667810405121134e-02 0.000000000000000000e+00)
(2.020202020202020443e-01 4.976461046184383480e-02 0.000000000000000000e+00)
(2.121212121212121271e-01 4.968356117857086751e-02 0.000000000000000000e+00)
(2.222222222222222376e-01 4.957892327579408592e-02 0.000000000000000000e+00)
(2.323232323232323482e-01 4.944537225803125741e-02 0.000000000000000000e+00)
(2.424242424242424310e-01 4.927687926011829062e-02 0.000000000000000000e+00)
(2.525252525252525415e-01 4.906676950329667830e-02 0.000000000000000000e+00)
(2.626262626262626521e-01 4.880783627489785476e-02 0.000000000000000000e+00)
(2.727272727272727626e-01 4.849251930415996586e-02 0.000000000000000000e+00)
(2.828282828282828731e-01 4.811315384296800668e-02 0.000000000000000000e+00)
(2.929292929292929282e-01 4.766229287966472494e-02 0.000000000000000000e+00)
(3.030303030303030387e-01 4.713309974375935740e-02 0.000000000000000000e+00)
(3.131313131313131493e-01 4.651980208038371256e-02 0.000000000000000000e+00)
(3.232323232323232598e-01 4.581819113927414200e-02 0.000000000000000000e+00)
(3.333333333333333703e-01 4.502614306036256675e-02 0.000000000000000000e+00)
(3.434343434343434809e-01 4.414413202336277264e-02 0.000000000000000000e+00)
(3.535353535353535914e-01 4.317569954062647208e-02 0.000000000000000000e+00)
(3.636363636363636465e-01 4.212784061905781863e-02 0.000000000000000000e+00)
(3.737373737373737570e-01 4.101126674375936421e-02 0.000000000000000000e+00)
(3.838383838383838675e-01 3.984050822493880040e-02 0.000000000000000000e+00)
(3.939393939393939781e-01 3.863382471843194998e-02 0.000000000000000000e+00)
(4.040404040404040886e-01 3.741290265078803245e-02 0.000000000000000000e+00)
(4.141414141414141992e-01 3.620233142649421920e-02 0.000000000000000000e+00)
(4.242424242424242542e-01 3.502886583644501672e-02 0.000000000000000000e+00)
(4.343434343434343647e-01 3.392049882952949402e-02 0.000000000000000000e+00)
(4.444444444444444753e-01 3.290538529169353965e-02 0.000000000000000000e+00)
(4.545454545454545858e-01 3.201067210936883733e-02 0.000000000000000000e+00)
(4.646464646464646964e-01 3.126130102968048552e-02 0.000000000000000000e+00)
(4.747474747474748069e-01 3.067885734552156310e-02 0.000000000000000000e+00)
(4.848484848484848619e-01 3.028053829975405759e-02 0.000000000000000000e+00)
(4.949494949494949725e-01 3.007830991543267857e-02 0.000000000000000000e+00)
(5.050505050505050830e-01 3.007830991543267857e-02 0.000000000000000000e+00)
(5.151515151515152491e-01 3.028053829975406105e-02 0.000000000000000000e+00)
(5.252525252525253041e-01 3.067885734552156657e-02 0.000000000000000000e+00)
(5.353535353535353591e-01 3.126130102968049940e-02 0.000000000000000000e+00)
(5.454545454545455252e-01 3.201067210936883733e-02 0.000000000000000000e+00)
(5.555555555555555802e-01 3.290538529169353965e-02 0.000000000000000000e+00)
(5.656565656565657463e-01 3.392049882952950790e-02 0.000000000000000000e+00)
(5.757575757575758013e-01 3.502886583644501672e-02 0.000000000000000000e+00)
(5.858585858585858563e-01 3.620233142649422614e-02 0.000000000000000000e+00)
(5.959595959595960224e-01 3.741290265078804633e-02 0.000000000000000000e+00)
(6.060606060606060774e-01 3.863382471843195692e-02 0.000000000000000000e+00)
(6.161616161616162435e-01 3.984050822493881427e-02 0.000000000000000000e+00)
(6.262626262626262985e-01 4.101126674375937808e-02 0.000000000000000000e+00)
(6.363636363636364646e-01 4.212784061905782557e-02 0.000000000000000000e+00)
(6.464646464646465196e-01 4.317569954062648596e-02 0.000000000000000000e+00)
(6.565656565656565746e-01 4.414413202336277264e-02 0.000000000000000000e+00)
(6.666666666666667407e-01 4.502614306036257369e-02 0.000000000000000000e+00)
(6.767676767676767957e-01 4.581819113927414200e-02 0.000000000000000000e+00)
(6.868686868686869618e-01 4.651980208038371950e-02 0.000000000000000000e+00)
(6.969696969696970168e-01 4.713309974375935740e-02 0.000000000000000000e+00)
(7.070707070707071829e-01 4.766229287966473188e-02 0.000000000000000000e+00)
(7.171717171717172379e-01 4.811315384296800668e-02 0.000000000000000000e+00)
(7.272727272727272929e-01 4.849251930415997280e-02 0.000000000000000000e+00)
(7.373737373737374590e-01 4.880783627489786169e-02 0.000000000000000000e+00)
(7.474747474747475140e-01 4.906676950329667830e-02 0.000000000000000000e+00)
(7.575757575757576801e-01 4.927687926011829755e-02 0.000000000000000000e+00)
(7.676767676767677351e-01 4.944537225803125741e-02 0.000000000000000000e+00)
(7.777777777777777901e-01 4.957892327579408592e-02 0.000000000000000000e+00)
(7.878787878787879562e-01 4.968356117857086751e-02 0.000000000000000000e+00)
(7.979797979797980112e-01 4.976461046184383480e-02 0.000000000000000000e+00)
(8.080808080808081773e-01 4.982667810405121828e-02 0.000000000000000000e+00)
(8.181818181818182323e-01 4.987367521109480756e-02 0.000000000000000000e+00)
(8.282828282828283983e-01 4.990886344519993717e-02 0.000000000000000000e+00)
(8.383838383838384534e-01 4.993491730791755484e-02 0.000000000000000000e+00)
(8.484848484848485084e-01 4.995399476151885648e-02 0.000000000000000000e+00)
(8.585858585858586745e-01 4.996781022510365933e-02 0.000000000000000000e+00)
(8.686868686868687295e-01 4.997770551375962239e-02 0.000000000000000000e+00)
(8.787878787878788955e-01 4.998471568872610293e-02 0.000000000000000000e+00)
(8.888888888888889506e-01 4.998962798456160761e-02 0.000000000000000000e+00)
(8.989898989898991166e-01 4.999303294384325330e-02 0.000000000000000000e+00)
(9.090909090909091717e-01 4.999536761823385189e-02 0.000000000000000000e+00)
(9.191919191919192267e-01 4.999695120480235344e-02 0.000000000000000000e+00)
(9.292929292929293927e-01 4.999801380888093533e-02 0.000000000000000000e+00)
(9.393939393939394478e-01 4.999871919594024716e-02 0.000000000000000000e+00)
(9.494949494949496138e-01 4.999918245205520889e-02 0.000000000000000000e+00)
(9.595959595959596689e-01 4.999948344967093672e-02 0.000000000000000000e+00)
(9.696969696969697239e-01 4.999967694168037241e-02 0.000000000000000000e+00)
(9.797979797979798899e-01 4.999980000548138320e-02 0.000000000000000000e+00)
(9.898989898989899450e-01 4.999987744694785879e-02 0.000000000000000000e+00)
(1.000000000000000000e+00 4.999992566402426675e-02 0.000000000000000000e+00)
	)

	spline 5 6 // right bc back
	(
(0.000000000000000000e+00 4.999992566402426675e-02 1.000000000000000021e-02)
(1.010101010101010187e-02 4.999987744694785879e-02 1.000000000000000021e-02)
(2.020202020202020374e-02 4.999980000548138320e-02 1.000000000000000021e-02)
(3.030303030303030387e-02 4.999967694168037241e-02 1.000000000000000021e-02)
(4.040404040404040747e-02 4.999948344967093672e-02 1.000000000000000021e-02)
(5.050505050505051108e-02 4.999918245205520889e-02 1.000000000000000021e-02)
(6.060606060606060774e-02 4.999871919594024716e-02 1.000000000000000021e-02)
(7.070707070707071829e-02 4.999801380888093533e-02 1.000000000000000021e-02)
(8.080808080808081495e-02 4.999695120480235344e-02 1.000000000000000021e-02)
(9.090909090909091161e-02 4.999536761823385189e-02 1.000000000000000021e-02)
(1.010101010101010222e-01 4.999303294384325330e-02 1.000000000000000021e-02)
(1.111111111111111188e-01 4.998962798456160761e-02 1.000000000000000021e-02)
(1.212121212121212155e-01 4.998471568872610293e-02 1.000000000000000021e-02)
(1.313131313131313260e-01 4.997770551375962239e-02 1.000000000000000021e-02)
(1.414141414141414366e-01 4.996781022510365933e-02 1.000000000000000021e-02)
(1.515151515151515194e-01 4.995399476151885648e-02 1.000000000000000021e-02)
(1.616161616161616299e-01 4.993491730791755484e-02 1.000000000000000021e-02)
(1.717171717171717404e-01 4.990886344519993717e-02 1.000000000000000021e-02)
(1.818181818181818232e-01 4.987367521109480756e-02 1.000000000000000021e-02)
(1.919191919191919338e-01 4.982667810405121134e-02 1.000000000000000021e-02)
(2.020202020202020443e-01 4.976461046184383480e-02 1.000000000000000021e-02)
(2.121212121212121271e-01 4.968356117857086751e-02 1.000000000000000021e-02)
(2.222222222222222376e-01 4.957892327579408592e-02 1.000000000000000021e-02)
(2.323232323232323482e-01 4.944537225803125741e-02 1.000000000000000021e-02)
(2.424242424242424310e-01 4.927687926011829062e-02 1.000000000000000021e-02)
(2.525252525252525415e-01 4.906676950329667830e-02 1.000000000000000021e-02)
(2.626262626262626521e-01 4.880783627489785476e-02 1.000000000000000021e-02)
(2.727272727272727626e-01 4.849251930415996586e-02 1.000000000000000021e-02)
(2.828282828282828731e-01 4.811315384296800668e-02 1.000000000000000021e-02)
(2.929292929292929282e-01 4.766229287966472494e-02 1.000000000000000021e-02)
(3.030303030303030387e-01 4.713309974375935740e-02 1.000000000000000021e-02)
(3.131313131313131493e-01 4.651980208038371256e-02 1.000000000000000021e-02)
(3.232323232323232598e-01 4.581819113927414200e-02 1.000000000000000021e-02)
(3.333333333333333703e-01 4.502614306036256675e-02 1.000000000000000021e-02)
(3.434343434343434809e-01 4.414413202336277264e-02 1.000000000000000021e-02)
(3.535353535353535914e-01 4.317569954062647208e-02 1.000000000000000021e-02)
(3.636363636363636465e-01 4.212784061905781863e-02 1.000000000000000021e-02)
(3.737373737373737570e-01 4.101126674375936421e-02 1.000000000000000021e-02)
(3.838383838383838675e-01 3.984050822493880040e-02 1.000000000000000021e-02)
(3.939393939393939781e-01 3.863382471843194998e-02 1.000000000000000021e-02)
(4.040404040404040886e-01 3.741290265078803245e-02 1.000000000000000021e-02)
(4.141414141414141992e-01 3.620233142649421920e-02 1.000000000000000021e-02)
(4.242424242424242542e-01 3.502886583644501672e-02 1.000000000000000021e-02)
(4.343434343434343647e-01 3.392049882952949402e-02 1.000000000000000021e-02)
(4.444444444444444753e-01 3.290538529169353965e-02 1.000000000000000021e-02)
(4.545454545454545858e-01 3.201067210936883733e-02 1.000000000000000021e-02)
(4.646464646464646964e-01 3.126130102968048552e-02 1.000000000000000021e-02)
(4.747474747474748069e-01 3.067885734552156310e-02 1.000000000000000021e-02)
(4.848484848484848619e-01 3.028053829975405759e-02 1.000000000000000021e-02)
(4.949494949494949725e-01 3.007830991543267857e-02 1.000000000000000021e-02)
(5.050505050505050830e-01 3.007830991543267857e-02 1.000000000000000021e-02)
(5.151515151515152491e-01 3.028053829975406105e-02 1.000000000000000021e-02)
(5.252525252525253041e-01 3.067885734552156657e-02 1.000000000000000021e-02)
(5.353535353535353591e-01 3.126130102968049940e-02 1.000000000000000021e-02)
(5.454545454545455252e-01 3.201067210936883733e-02 1.000000000000000021e-02)
(5.555555555555555802e-01 3.290538529169353965e-02 1.000000000000000021e-02)
(5.656565656565657463e-01 3.392049882952950790e-02 1.000000000000000021e-02)
(5.757575757575758013e-01 3.502886583644501672e-02 1.000000000000000021e-02)
(5.858585858585858563e-01 3.620233142649422614e-02 1.000000000000000021e-02)
(5.959595959595960224e-01 3.741290265078804633e-02 1.000000000000000021e-02)
(6.060606060606060774e-01 3.863382471843195692e-02 1.000000000000000021e-02)
(6.161616161616162435e-01 3.984050822493881427e-02 1.000000000000000021e-02)
(6.262626262626262985e-01 4.101126674375937808e-02 1.000000000000000021e-02)