// Parametrized windTunnel

//Run using:
//m4 -P blockMeshDict.m4 > blockMeshDict

//m4 definitions:

//Mathematical constants:


//m4 spec:


//plane A settlingChamberInlet


//plane B contractionInlet


//plane C testSectionInlet


//plane D diffuserInlet


//plane E fanInlet


//plane F fanOutlet


//plane z:


//spline:


/*--------------------------------*- C++ -*----------------------------------*\
| =========                 |                                                 |
| \\      /  F ield         | OpenFOAM: The Open Source CFD Toolbox           |
|  \\    /   O peration     | Version:  1.7.1                                 |
|   \\  /    A nd           | Web:      www.OpenFOAM.com                      |
|    \\/     M anipulation  |                                                 |
\*---------------------------------------------------------------------------*/
FoamFile
{
    version     2.0;
    format      ascii;

    root            "";
    case            "";
    instance        "";
    local           "";

    class       dictionary;
    object      blockMeshDict;
}
// * * * * * * * * * * * * * * * * * * * * * * * * * * * * * * * * * * * * * //

convertToMeters 1;

vertices        
(
	// front side
	(0.02 2.2 0) // Vertex A0 = 0 
	(6.4 1.7 0) // Vertex A1 = 3 
    (6.4 2 0) // Vertex B1 = 2 
    (0.04 2.2 0) // Vertex B0 = 1 
	
	
	// back side	
	(0.02 2.2 0.01) // Vertex A3 = 4 
	(6.4 1.7 0.01) // Vertex A2 = 7 
    (6.4 2 0.01) // Vertex B2 = 6 
    (0.04 2.2 0.01) // Vertex B3 = 5 
	

);

blocks          
(
    // stenosis domain	
    hex (0 1 2 3 4 5 6 7) (13 47 1) simpleGrading (1 1 1)
);

edges           
(
spline 0 3
(
(-6.826040000000000232e-03 1.456389999999999942e-02 0.000000000000000000e+00)
(-1.210430000000000013e-02 2.389770000000000089e-02 0.000000000000000000e+00)
(-1.793679999999999927e-02 3.289670000000000094e-02 0.000000000000000000e+00)
(-2.425120000000000053e-02 4.156529999999999947e-02 0.000000000000000000e+00)
(-3.099100000000000119e-02 4.990819999999999979e-02 0.000000000000000000e+00)
(-3.804450000000000193e-02 5.799030000000000157e-02 0.000000000000000000e+00)
(-4.528460000000000124e-02 6.590640000000000387e-02 0.000000000000000000e+00)
(-5.269120000000000054e-02 7.366649999999999587e-02 0.000000000000000000e+00)
(-6.018969999999999876e-02 8.133899999999999464e-02 0.000000000000000000e+00)
(-6.768820000000000392e-02 8.901149999999999340e-02 0.000000000000000000e+00)
(-7.513219999999999621e-02 9.673650000000000304e-02 0.000000000000000000e+00)
(-8.243720000000000214e-02 1.045930000000000054e-01 0.000000000000000000e+00)
(-8.953969999999999985e-02 1.126309999999999950e-01 0.000000000000000000e+00)
(-9.638439999999999508e-02 1.208909999999999985e-01 0.000000000000000000e+00)
(-1.028619999999999951e-01 1.294369999999999965e-01 0.000000000000000000e+00)
(-1.088110000000000049e-01 1.383580000000000088e-01 0.000000000000000000e+00)
(-1.142740000000000006e-01 1.475889999999999980e-01 0.000000000000000000e+00)
(-1.193570000000000048e-01 1.570330000000000059e-01 0.000000000000000000e+00)
(-1.239139999999999964e-01 1.667389999999999983e-01 0.000000000000000000e+00)
(-1.279949999999999977e-01 1.766590000000000105e-01 0.000000000000000000e+00)
(-1.316809999999999925e-01 1.866460000000000063e-01 0.000000000000000000e+00)
(-1.348880000000000079e-01 1.967129999999999990e-01 0.000000000000000000e+00)
(-1.377529999999999866e-01 2.068840000000000123e-01 0.000000000000000000e+00)
(-1.402339999999999975e-01 2.171530000000000127e-01 0.000000000000000000e+00)
(-1.423200000000000021e-01 2.275119999999999920e-01 0.000000000000000000e+00)
(-1.441280000000000061e-01 2.379229999999999956e-01 0.000000000000000000e+00)
(-1.455670000000000019e-01 2.483899999999999997e-01 0.000000000000000000e+00)
(-1.466979999999999951e-01 2.588969999999999883e-01 0.000000000000000000e+00)
(-1.475549999999999917e-01 2.694280000000000008e-01 0.000000000000000000e+00)
(-1.480170000000000097e-01 2.799840000000000106e-01 0.000000000000000000e+00)
(-1.480619999999999992e-01 2.905499999999999750e-01 0.000000000000000000e+00)
(-1.476800000000000057e-01 3.011079999999999868e-01 0.000000000000000000e+00)
(-1.468240000000000101e-01 3.116380000000000261e-01 0.000000000000000000e+00)
(-1.454449999999999910e-01 3.221120000000000094e-01 0.000000000000000000e+00)
(-1.434960000000000124e-01 3.324949999999999850e-01 0.000000000000000000e+00)
(-1.409340000000000037e-01 3.427419999999999911e-01 0.000000000000000000e+00)
(-1.376890000000000058e-01 3.527919999999999945e-01 0.000000000000000000e+00)
(-1.337329999999999908e-01 3.625840000000000174e-01 0.000000000000000000e+00)
(-1.291120000000000045e-01 3.720809999999999951e-01 0.000000000000000000e+00)
(-1.238869999999999971e-01 3.812619999999999898e-01 0.000000000000000000e+00)
(-1.181249999999999939e-01 3.901149999999999896e-01 0.000000000000000000e+00)
(-1.118829999999999963e-01 3.986379999999999924e-01 0.000000000000000000e+00)
(-1.052109999999999990e-01 4.068289999999999962e-01 0.000000000000000000e+00)
(-9.815039999999999876e-02 4.146880000000000011e-01 0.000000000000000000e+00)
(-9.073649999999999771e-02 4.222150000000000070e-01 0.000000000000000000e+00)
(-8.298389999999999933e-02 4.293919999999999959e-01 0.000000000000000000e+00)
(-7.495960000000000123e-02 4.362670000000000159e-01 0.000000000000000000e+00)
(-6.682369999999999977e-02 4.430120000000000169e-01 0.000000000000000000e+00)
(-5.865959999999999924e-02 4.497220000000000106e-01 0.000000000000000000e+00)
(-5.042939999999999923e-02 4.565520000000000134e-01 0.000000000000000000e+00)
(-4.233869999999999995e-02 4.637339999999999796e-01 0.000000000000000000e+00)
(-3.470440000000000330e-02 4.713950000000000085e-01 0.000000000000000000e+00)
(-2.768100000000000074e-02 4.796159999999999868e-01 0.000000000000000000e+00)
(-2.156109999999999971e-02 4.885160000000000058e-01 0.000000000000000000e+00)
(-1.651139999999999899e-02 4.980709999999999860e-01 0.000000000000000000e+00)
(-1.253559999999999917e-02 5.081179999999999586e-01 0.000000000000000000e+00)
(-9.604859999999999787e-03 5.185239999999999849e-01 0.000000000000000000e+00)
(-7.590650000000000001e-03 5.291479999999999517e-01 0.000000000000000000e+00)
(-6.480030000000000338e-03 5.399030000000000218e-01 0.000000000000000000e+00)
(-6.275110000000000410e-03 5.507140000000000368e-01 0.000000000000000000e+00)
(-6.916140000000000308e-03 5.615099999999999536e-01 0.000000000000000000e+00)
(-8.375119999999999787e-03 5.722260000000000124e-01 0.000000000000000000e+00)
(-1.073879999999999973e-02 5.827740000000000142e-01 0.000000000000000000e+00)
(-1.403279999999999979e-02 5.930729999999999613e-01 0.000000000000000000e+00)
(-1.821220000000000130e-02 6.030440000000000245e-01 0.000000000000000000e+00)
(-2.335730000000000098e-02 6.125469999999999526e-01 0.000000000000000000e+00)
(-2.949469999999999870e-02 6.214420000000000499e-01 0.000000000000000000e+00)
(-3.646950000000000192e-02 6.297030000000000127e-01 0.000000000000000000e+00)
(-4.407459999999999850e-02 6.373940000000000161e-01 0.000000000000000000e+00)
(-5.218330000000000191e-02 6.445520000000000138e-01 0.000000000000000000e+00)
(-6.057730000000000059e-02 6.513830000000000453e-01 0.000000000000000000e+00)
(-6.911209999999999576e-02 6.580359999999999543e-01 0.000000000000000000e+00)
(-7.771669999999999967e-02 6.645990000000000508e-01 0.000000000000000000e+00)
(-8.615079999999999960e-02 6.711049999999999516e-01 0.000000000000000000e+00)
(-9.430879999999999819e-02 6.776820000000000066e-01 0.000000000000000000e+00)
(-1.021409999999999957e-01 6.846410000000000551e-01 0.000000000000000000e+00)
(-1.094949999999999951e-01 6.920990000000000197e-01 0.000000000000000000e+00)
(-1.161879999999999996e-01 7.001490000000000213e-01 0.000000000000000000e+00)
(-1.219480000000000008e-01 7.088809999999999834e-01 0.000000000000000000e+00)
(-1.264959999999999973e-01 7.182950000000000168e-01 0.000000000000000000e+00)
(-1.297790000000000055e-01 7.282290000000000152e-01 0.000000000000000000e+00)
(-1.318840000000000012e-01 7.384789999999999965e-01 0.000000000000000000e+00)
(-1.328630000000000089e-01 7.489000000000000101e-01 0.000000000000000000e+00)
(-1.327679999999999971e-01 7.593680000000000430e-01 0.000000000000000000e+00)
(-1.316239999999999910e-01 7.697730000000000405e-01 0.000000000000000000e+00)
(-1.293519999999999948e-01 7.802299999999999791e-01 0.000000000000000000e+00)
(-1.258769999999999889e-01 7.905959999999999654e-01 0.000000000000000000e+00)
(-1.211919999999999942e-01 8.004700000000000149e-01 0.000000000000000000e+00)
(-1.153990000000000016e-01 8.097450000000000481e-01 0.000000000000000000e+00)
(-1.085890000000000050e-01 8.182949999999999946e-01 0.000000000000000000e+00)
(-1.009049999999999947e-01 8.260809999999999542e-01 0.000000000000000000e+00)
(-9.253590000000000426e-02 8.331239999999999757e-01 0.000000000000000000e+00)
(-8.355369999999999464e-02 8.393690000000000317e-01 0.000000000000000000e+00)
(-7.416570000000000107e-02 8.450010000000000021e-01 0.000000000000000000e+00)
(-6.444030000000000591e-02 8.500140000000000473e-01 0.000000000000000000e+00)
(-5.439589999999999703e-02 8.543669999999999876e-01 0.000000000000000000e+00)
(-4.416309999999999680e-02 8.582610000000000516e-01 0.000000000000000000e+00)
(-3.400859999999999994e-02 8.615629999999999677e-01 0.000000000000000000e+00)
(-2.395459999999999950e-02 8.642699999999999827e-01 0.000000000000000000e+00)
(-1.381319999999999944e-02 8.666350000000000442e-01 0.000000000000000000e+00)
(-3.586939999999999833e-03 8.685840000000000227e-01 0.000000000000000000e+00)
(6.706509999999999729e-03 8.701640000000000486e-01 0.000000000000000000e+00)
(1.704340000000000022e-02 8.714049999999999851e-01 0.000000000000000000e+00)
(2.741980000000000112e-02 8.722889999999999810e-01 0.000000000000000000e+00)
(3.781380000000000158e-02 8.729209999999999470e-01 0.000000000000000000e+00)
(4.822169999999999929e-02 8.732609999999999539e-01 0.000000000000000000e+00)
(5.863510000000000250e-02 8.733919999999999462e-01 0.000000000000000000e+00)
(6.904789999999999539e-02 8.732969999999999899e-01 0.000000000000000000e+00)
(7.945800000000000085e-02 8.730010000000000270e-01 0.000000000000000000e+00)
(8.986139999999999406e-02 8.725380000000000358e-01 0.000000000000000000e+00)
(1.002590000000000009e-01 8.719540000000000068e-01 0.000000000000000000e+00)
(1.105030000000000040e-01 8.713790000000000147e-01 0.000000000000000000e+00)
(1.205869999999999997e-01 8.707399999999999585e-01 0.000000000000000000e+00)
(1.306660000000000044e-01 8.700149999999999828e-01 0.000000000000000000e+00)
(1.407440000000000080e-01 8.692760000000000487e-01 0.000000000000000000e+00)
(1.508190000000000086e-01 8.684960000000000457e-01 0.000000000000000000e+00)
(1.608900000000000052e-01 8.676589999999999581e-01 0.000000000000000000e+00)
(1.709579999999999989e-01 8.668040000000000189e-01 0.000000000000000000e+00)
(1.810239999999999905e-01 8.659149999999999903e-01 0.000000000000000000e+00)
(1.910840000000000038e-01 8.649660000000000126e-01 0.000000000000000000e+00)
(2.011419999999999875e-01 8.639930000000000110e-01 0.000000000000000000e+00)
(2.111979999999999968e-01 8.629919999999999813e-01 0.000000000000000000e+00)
(2.212469999999999992e-01 8.619339999999999780e-01 0.000000000000000000e+00)
(2.312929999999999986e-01 8.608449999999999713e-01 0.000000000000000000e+00)
(2.413379999999999970e-01 8.597420000000000062e-01 0.000000000000000000e+00)
(2.513770000000000171e-01 8.585880000000000178e-01 0.000000000000000000e+00)
(2.614090000000000025e-01 8.573739999999999695e-01 0.000000000000000000e+00)
(2.714309999999999778e-01 8.560870000000000424e-01 0.000000000000000000e+00)
(2.814420000000000255e-01 8.547129999999999450e-01 0.000000000000000000e+00)
(2.914370000000000016e-01 8.532239999999999824e-01 0.000000000000000000e+00)
(3.014120000000000132e-01 8.516089999999999494e-01 0.000000000000000000e+00)
(3.113600000000000256e-01 8.498369999999999536e-01 0.000000000000000000e+00)
(3.212769999999999793e-01 8.478999999999999870e-01 0.000000000000000000e+00)
(3.311520000000000019e-01 8.457609999999999850e-01 0.000000000000000000e+00)
(3.409800000000000053e-01 8.434120000000000505e-01 0.000000000000000000e+00)
(3.507440000000000002e-01 8.408160000000000078e-01 0.000000000000000000e+00)
(3.604370000000000074e-01 8.379609999999999559e-01 0.000000000000000000e+00)
(3.700350000000000028e-01 8.348109999999999697e-01 0.000000000000000000e+00)
(3.795270000000000032e-01 8.313460000000000294e-01 0.000000000000000000e+00)
(3.888840000000000074e-01 8.275400000000000533e-01 0.000000000000000000e+00)
(3.980949999999999767e-01 8.233850000000000335e-01 0.000000000000000000e+00)
(4.084189999999999765e-01 8.182009999999999561e-01 0.000000000000000000e+00)
(4.197640000000000260e-01 8.118410000000000348e-01 0.000000000000000000e+00)
(4.308520000000000127e-01 8.050399999999999778e-01 0.000000000000000000e+00)
(4.417490000000000028e-01 7.979349999999999499e-01 0.000000000000000000e+00)
(4.525480000000000058e-01 7.906809999999999672e-01 0.000000000000000000e+00)
(4.633180000000000076e-01 7.833839999999999693e-01 0.000000000000000000e+00)
(4.741250000000000187e-01 7.761419999999999986e-01 0.000000000000000000e+00)
(4.850499999999999812e-01 7.690810000000000146e-01 0.000000000000000000e+00)
(4.961490000000000067e-01 7.622970000000000024e-01 0.000000000000000000e+00)
(5.074379999999999447e-01 7.558340000000000058e-01 0.000000000000000000e+00)
(5.189019999999999744e-01 7.496869999999999923e-01 0.000000000000000000e+00)
(5.304640000000000466e-01 7.437240000000000517e-01 0.000000000000000000e+00)
(5.420390000000000486e-01 7.377860000000000529e-01 0.000000000000000000e+00)
(5.535830000000000473e-01 7.317869999999999653e-01 0.000000000000000000e+00)
(5.650020000000000042e-01 7.255580000000000362e-01 0.000000000000000000e+00)
(5.761889999999999512e-01 7.189229999999999787e-01 0.000000000000000000e+00)
(5.870509999999999895e-01 7.117719999999999603e-01 0.000000000000000000e+00)
(5.974599999999999911e-01 7.039809999999999679e-01 0.000000000000000000e+00)
(6.072380000000000555e-01 6.954179999999999806e-01 0.000000000000000000e+00)
(6.161269999999999802e-01 6.859459999999999447e-01 0.000000000000000000e+00)
(6.239620000000000166e-01 6.755820000000000158e-01 0.000000000000000000e+00)
(6.308869999999999756e-01 6.643599999999999506e-01 0.000000000000000000e+00)
(6.370080000000000187e-01 6.524619999999999864e-01 0.000000000000000000e+00)
(6.423659999999999926e-01 6.401980000000000448e-01 0.000000000000000000e+00)
(6.471189999999999998e-01 6.276840000000000197e-01 0.000000000000000000e+00)
(6.514159999999999950e-01 6.150050000000000239e-01 0.000000000000000000e+00)
(6.553949999999999498e-01 6.022220000000000351e-01 0.000000000000000000e+00)
(6.591679999999999762e-01 5.893760000000000110e-01 0.000000000000000000e+00)
(6.628209999999999935e-01 5.764949999999999797e-01 0.000000000000000000e+00)
(6.663689999999999891e-01 5.635850000000000026e-01 0.000000000000000000e+00)
(6.698060000000000125e-01 5.506450000000000511e-01 0.000000000000000000e+00)
(6.730709999999999749e-01 5.376609999999999445e-01 0.000000000000000000e+00)
(6.761709999999999665e-01 5.246359999999999912e-01 0.000000000000000000e+00)
(6.790140000000000065e-01 5.115539999999999532e-01 0.000000000000000000e+00)
(6.815839999999999677e-01 4.984149999999999969e-01 0.000000000000000000e+00)
(6.838910000000000267e-01 4.852279999999999927e-01 0.000000000000000000e+00)
(6.857609999999999539e-01 4.719720000000000026e-01 0.000000000000000000e+00)
(6.871950000000000003e-01 4.586620000000000141e-01 0.000000000000000000e+00)
(6.882420000000000204e-01 4.437039999999999873e-01 0.000000000000000000e+00)
(6.887069999999999581e-01 4.271099999999999897e-01 0.000000000000000000e+00)
(6.883340000000000014e-01 4.105139999999999900e-01 0.000000000000000000e+00)
(6.870760000000000201e-01 3.939619999999999789e-01 0.000000000000000000e+00)
(6.849070000000000435e-01 3.775040000000000062e-01 0.000000000000000000e+00)
(6.818800000000000416e-01 3.611820000000000030e-01 0.000000000000000000e+00)
(6.779669999999999863e-01 3.450509999999999966e-01 0.000000000000000000e+00)
(6.733339999999999881e-01 3.291060000000000096e-01 0.000000000000000000e+00)
(6.681380000000000097e-01 3.133380000000000054e-01 0.000000000000000000e+00)
(6.624520000000000408e-01 2.977369999999999739e-01 0.000000000000000000e+00)
(6.564640000000000475e-01 2.822490000000000276e-01 0.000000000000000000e+00)
(6.501839999999999842e-01 2.668769999999999754e-01 0.000000000000000000e+00)
(6.435889999999999667e-01 2.516379999999999728e-01 0.000000000000000000e+00)
(6.366239999999999677e-01 2.365649999999999975e-01 0.000000000000000000e+00)
(6.291999999999999815e-01 2.217129999999999934e-01 0.000000000000000000e+00)
(6.211950000000000527e-01 2.071689999999999920e-01 0.000000000000000000e+00)
(6.126549999999999496e-01 1.929299999999999904e-01 0.000000000000000000e+00)
(6.035129999999999661e-01 1.790750000000000119e-01 0.000000000000000000e+00)
(5.935719999999999885e-01 1.657820000000000127e-01 0.000000000000000000e+00)
(5.828649999999999665e-01 1.530980000000000119e-01 0.000000000000000000e+00)
(5.713500000000000245e-01 1.411489999999999967e-01 0.000000000000000000e+00)
(5.589720000000000244e-01 1.300979999999999914e-01 0.000000000000000000e+00)
(5.458260000000000334e-01 1.199680000000000052e-01 0.000000000000000000e+00)
(5.319899999999999629e-01 1.108050000000000007e-01 0.000000000000000000e+00)
)
spline 4 7
(
(-6.826040000000000232e-03 1.456389999999999942e-02 -1.000000000000000021e-02)
(-1.210430000000000013e-02 2.389770000000000089e-02 -1.000000000000000021e-02)
(-1.793679999999999927e-02 3.289670000000000094e-02 -1.000000000000000021e-02)
(-2.425120000000000053e-02 4.156529999999999947e-02 -1.000000000000000021e-02)
(-3.099100000000000119e-02 4.990819999999999979e-02 -1.000000000000000021e-02)
(-3.804450000000000193e-02 5.799030000000000157e-02 -1.000000000000000021e-02)
(-4.528460000000000124e-02 6.590640000000000387e-02 -1.000000000000000021e-02)
(-5.269120000000000054e-02 7.366649999999999587e-02 -1.000000000000000021e-02)
(-6.018969999999999876e-02 8.133899999999999464e-02 -1.000000000000000021e-02)
(-6.768820000000000392e-02 8.901149999999999340e-02 -1.000000000000000021e-02)
(-7.513219999999999621e-02 9.673650000000000304e-02 -1.000000000000000021e-02)
(-8.243720000000000214e-02 1.045930000000000054e-01 -1.000000000000000021e-02)
(-8.953969999999999985e-02 1.126309999999999950e-01 -1.000000000000000021e-02)
(-9.638439999999999508e-02 1.208909999999999985e-01 -1.000000000000000021e-02)
(-1.028619999999999951e-01 1.294369999999999965e-01 -1.000000000000000021e-02)
(-1.088110000000000049e-01 1.383580000000000088e-01 -1.000000000000000021e-02)
(-1.142740000000000006e-01 1.475889999999999980e-01 -1.000000000000000021e-02)
(-1.193570000000000048e-01 1.570330000000000059e-01 -1.000000000000000021e-02)
(-1.239139999999999964e-01 1.667389999999999983e-01 -1.000000000000000021e-02)
(-1.279949999999999977e-01 1.766590000000000105e-01 -1.000000000000000021e-02)
(-1.316809999999999925e-01 1.866460000000000063e-01 -1.000000000000000021e-02)
(-1.348880000000000079e-01 1.967129999999999990e-01 -1.000000000000000021e-02)
(-1.377529999999999866e-01 2.068840000000000123e-01 -1.000000000000000021e-02)
(-1.402339999999999975e-01 2.171530000000000127e-01 -1.000000000000000021e-02)
(-1.423200000000000021e-01 2.275119999999999920e-01 -1.000000000000000021e-02)
(-1.441280000000000061e-01 2.379229999999999956e-01 -1.000000000000000021e-02)
(-1.455670000000000019e-01 2.483899999999999997e-01 -1.000000000000000021e-02)
(-1.466979999999999951e-01 2.588969999999999883e-01 -1.000000000000000021e-02)
(-1.475549999999999917e-01 2.694280000000000008e-01 -1.000000000000000021e-02)
(-1.480170000000000097e-01 2.799840000000000106e-01 -1.000000000000000021e-02)
(-1.480619999999999992e-01 2.905499999999999750e-01 -1.000000000000000021e-02)
(-1.476800000000000057e-01 3.011079999999999868e-01 -1.000000000000000021e-02)
(-1.468240000000000101e-01 3.116380000000000261e-01 -1.000000000000000021e-02)
(-1.454449999999999910e-01 3.221120000000000094e-01 -1.000000000000000021e-02)
(-1.434960000000000124e-01 3.324949999999999850e-01 -1.000000000000000021e-02)
(-1.409340000000000037e-01 3.427419999999999911e-01 -1.000000000000000021e-02)
(-1.376890000000000058e-01 3.527919999999999945e-01 -1.000000000000000021e-02)
(-1.337329999999999908e-01 3.625840000000000174e-01 -1.000000000000000021e-02)
(-1.291120000000000045e-01 3.720809999999999951e-01 -1.000000000000000021e-02)
(-1.238869999999999971e-01 3.812619999999999898e-01 -1.000000000000000021e-02)
(-1.181249999999999939e-01 3.901149999999999896e-01 -1.000000000000000021e-02)
(-1.118829999999999963e-01 3.986379999999999924e-01 -1.000000000000000021e-02)
(-1.052109999999999990e-01 4.068289999999999962e-01 -1.000000000000000021e-02)
(-9.815039999999999876e-02 4.146880000000000011e-01 -1.000000000000000021e-02)
(-9.073649999999999771e-02 4.222150000000000070e-01 -1.000000000000000021e-02)
(-8.298389999999999933e-02 4.293919999999999959e-01 -1.000000000000000021e-02)
(-7.495960000000000123e-02 4.362670000000000159e-01 -1.000000000000000021e-02)
(-6.682369999999999977e-02 4.430120000000000169e-01 -1.000000000000000021e-02)
(-5.865959999999999924e-02 4.497220000000000106e-01 -1.000000000000000021e-02)
(-5.042939999999999923e-02 4.565520000000000134e-01 -1.000000000000000021e-02)
(-4.233869999999999995e-02 4.637339999999999796e-01 -1.000000000000000021e-02)
(-3.470440000000000330e-02 4.713950000000000085e-01 -1.000000000000000021e-02)
(-2.768100000000000074e-02 4.796159999999999868e-01 -1.000000000000000021e-02)
(-2.156109999999999971e-02 4.885160000000000058e-01 -1.000000000000000021e-02)
(-1.651139999999999899e-02 4.980709999999999860e-01 -1.000000000000000021e-02)
(-1.253559999999999917e-02 5.081179999999999586e-01 -1.000000000000000021e-02)
(-9.604859999999999787e-03 5.185239999999999849e-01 -1.000000000000000021e-02)
(-7.590650000000000001e-03 5.291479999999999517e-01 -1.000000000000000021e-02)
(-6.480030000000000338e-03 5.399030000000000218e-01 -1.000000000000000021e-02)
(-6.275110000000000410e-03 5.507140000000000368e-01 -1.000000000000000021e-02)
(-6.916140000000000308e-03 5.615099999999999536e-01 -1.000000000000000021e-02)
(-8.375119999999999787e-03 5.722260000000000124e-01 -1.000000000000000021e-02)
(-1.073879999999999973e-02 5.827740000000000142e-01 -1.000000000000000021e-02)
(-1.403279999999999979e-02 5.930729999999999613e-01 -1.000000000000000021e-02)
(-1.821220000000000130e-02 6.030440000000000245e-01 -1.000000000000000021e-02)
(-2.335730000000000098e-02 6.125469999999999526e-01 -1.000000000000000021e-02)
(-2.949469999999999870e-02 6.214420000000000499e-01 -1.000000000000000021e-02)
(-3.646950000000000192e-02 6.297030000000000127e-01 -1.000000000000000021e-02)
(-4.407459999999999850e-02 6.373940000000000161e-01 -1.000000000000000021e-02)
(-5.218330000000000191e-02 6.445520000000000138e-01 -1.000000000000000021e-02)
(-6.057730000000000059e-02 6.513830000000000453e-01 -1.000000000000000021e-02)
(-6.911209999999999576e-02 6.580359999999999543e-01 -1.000000000000000021e-02)
(-7.771669999999999967e-02 6.645990000000000508e-01 -1.000000000000000021e-02)
(-8.615079999999999960e-02 6.711049999999999516e-01 -1.000000000000000021e-02)
(-9.430879999999999819e-02 6.776820000000000066e-01 -1.000000000000000021e-02)
(-1.021409999999999957e-01 6.846410000000000551e-01 -1.000000000000000021e-02)
(-1.094949999999999951e-01 6.920990000000000197e-01 -1.000000000000000021e-02)
(-1.161879999999999996e-01 7.001490000000000213e-01 -1.000000000000000021e-02)
(-1.219480000000000008e-01 7.088809999999999834e-01 -1.000000000000000021e-02)
(-1.264959999999999973e-01 7.182950000000000168e-01 -1.000000000000000021e-02)
(-1.297790000000000055e-01 7.282290000000000152e-01 -1.000000000000000021e-02)
(-1.318840000000000012e-01 7.384789999999999965e-01 -1.000000000000000021e-02)
(-1.328630000000000089e-01 7.489000000000000101e-01 -1.000000000000000021e-02)
(-1.327679999999999971e-01 7.593680000000000430e-01 -1.000000000000000021e-02)
(-1.316239999999999910e-01 7.697730000000000405e-01 -1.000000000000000021e-02)
(-1.293519999999999948e-01 7.802299999999999791e-01 -1.000000000000000021e-02)
(-1.258769999999999889e-01 7.905959999999999654e-01 -1.000000000000000021e-02)
(-1.211919999999999942e-01 8.004700000000000149e-01 -1.000000000000000021e-02)
(-1.153990000000000016e-01 8.097450000000000481e-01 -1.000000000000000021e-02)
(-1.085890000000000050e-01 8.182949999999999946e-01 -1.000000000000000021e-02)
(-1.009049999999999947e-01 8.260809999999999542e-01 -1.000000000000000021e-02)
(-9.253590000000000426e-02 8.331239999999999757e-01 -1.000000000000000021e-02)
(-8.355369999999999464e-02 8.393690000000000317e-01 -1.000000000000000021e-02)
(-7.416570000000000107e-02 8.450010000000000021e-01 -1.000000000000000021e-02)
(-6.444030000000000591e-02 8.500140000000000473e-01 -1.000000000000000021e-02)
(-5.439589999999999703e-02 8.543669999999999876e-01 -1.000000000000000021e-02)
(-4.416309999999999680e-02 8.582610000000000516e-01 -1.000000000000000021e-02)
(-3.400859999999999994e-02 8.615629999999999677e-01 -1.000000000000000021e-02)
(-2.395459999999999950e-02 8.642699999999999827e-01 -1.000000000000000021e-02)
(-1.381319999999999944e-02 8.666350000000000442e-01 -1.000000000000000021e-02)
(-3.586939999999999833e-03 8.685840000000000227e-01 -1.000000000000000021e-02)
(6.706509999999999729e-03 8.701640000000000486e-01 -1.000000000000000021e-02)
(1.704340000000000022e-02 8.714049999999999851e-01 -1.000000000000000021e-02)
(2.741980000000000112e-02 8.722889999999999810e-01 -1.000000000000000021e-02)
(3.781380000000000158e-02 8.729209999999999470e-01 -1.000000000000000021e-02)
(4.822169999999999929e-02 8.732609999999999539e-01 -1.000000000000000021e-02)
(5.863510000000000250e-02 8.733919999999999462e-01 -1.000000000000000021e-02)
(6.904789999999999539e-02 8.732969999999999899e-01 -1.000000000000000021e-02)
(7.945800000000000085e-02 8.730010000000000270e-01 -1.000000000000000021e-02)
(8.986139999999999406e-02 8.725380000000000358e-01 -1.000000000000000021e-02)
(1.002590000000000009e-01 8.719540000000000068e-01 -1.000000000000000021e-02)
(1.105030000000000040e-01 8.713790000000000147e-01 -1.000000000000000021e-02)
(1.205869999999999997e-01 8.707399999999999585e-01 -1.000000000000000021e-02)
(1.306660000000000044e-01 8.700149999999999828e-01 -1.000000000000000021e-02)
(1.407440000000000080e-01 8.692760000000000487e-01 -1.000000000000000021e-02)
(1.508190000000000086e-01 8.684960000000000457e-01 -1.000000000000000021e-02)
(1.608900000000000052e-01 8.676589999999999581e-01 -1.000000000000000021e-02)
(1.709579999999999989e-01 8.668040000000000189e-01 -1.000000000000000021e-02)
(1.810239999999999905e-01 8.659149999999999903e-01 -1.000000000000000021e-02)
(1.910840000000000038e-01 8.649660000000000126e-01 -1.000000000000000021e-02)
(2.011419999999999875e-01 8.639930000000000110e-01 -1.000000000000000021e-02)
(2.111979999999999968e-01 8.629919999999999813e-01 -1.000000000000000021e-02)
(2.212469999999999992e-01 8.619339999999999780e-01 -1.000000000000000021e-02)
(2.312929999999999986e-01 8.608449999999999713e-01 -1.000000000000000021e-02)
(2.413379999999999970e-01 8.597420000000000062e-01 -1.000000000000000021e-02)
(2.513770000000000171e-01 8.585880000000000178e-01 -1.000000000000000021e-02)
(2.614090000000000025e-01 8.573739999999999695e-01 -1.000000000000000021e-02)
(2.714309999999999778e-01 8.560870000000000424e-01 -1.000000000000000021e-02)
(2.814420000000000255e-01 8.547129999999999450e-01 -1.000000000000000021e-02)
(2.914370000000000016e-01 8.532239999999999824e-01 -1.000000000000000021e-02)
(3.014120000000000132e-01 8.516089999999999494e-01 -1.000000000000000021e-02)
(3.113600000000000256e-01 8.498369999999999536e-01 -1.000000000000000021e-02)
(3.212769999999999793e-01 8.478999999999999870e-01 -1.000000000000000021e-02)
(3.311520000000000019e-01 8.457609999999999850e-01 -1.000000000000000021e-02)
(3.409800000000000053e-01 8.434120000000000505e-01 -1.000000000000000021e-02)
(3.507440000000000002e-01 8.408160000000000078e-01 -1.000000000000000021e-02)
(3.604370000000000074e-01 8.379609999999999559e-01 -1.000000000000000021e-02)
(3.700350000000000028e-01 8.348109999999999697e-01 -1.000000000000000021e-02)
(3.795270000000000032e-01 8.313460000000000294e-01 -1.000000000000000021e-02)
(3.888840000000000074e-01 8.275400000000000533e-01 -1.000000000000000021e-02)
(3.980949999999999767e-01 8.233850000000000335e-01 -1.000000000000000021e-02)
(4.084189999999999765e-01 8.182009999999999561e-01 -1.000000000000000021e-02)
(4.197640000000000260e-01 8.118410000000000348e-01 -1.000000000000000021e-02)
(4.308520000000000127e-01 8.050399999999999778e-01 -1.000000000000000021e-02)
(4.417490000000000028e-01 7.979349999999999499e-01 -1.000000000000000021e-02)
(4.525480000000000058e-01 7.906809999999999672e-01 -1.000000000000000021e-02)
(4.633180000000000076e-01 7.833839999999999693e-01 -1.000000000000000021e-02)
(4.741250000000000187e-01 7.761419999999999986e-01 -1.000000000000000021e-02)
(4.850499999999999812e-01 7.690810000000000146e-01 -1.000000000000000021e-02)
(4.961490000000000067e-01 7.622970000000000024e-01 -1.000000000000000021e-02)
(5.074379999999999447e-01 7.558340000000000058e-01 -1.000000000000000021e-02)
(5.189019999999999744e-01 7.496869999999999923e-01 -1.000000000000000021e-02)
(5.304640000000000466e-01 7.437240000000000517e-01 -1.000000000000000021e-02)
(5.420390000000000486e-01 7.377860000000000529e-01 -1.000000000000000021e-02)
(5.535830000000000473e-01 7.317869999999999653e-01 -1.000000000000000021e-02)
(5.650020000000000042e-01 7.255580000000000362e-01 -1.000000000000000021e-02)
(5.761889999999999512e-01 7.189229999999999787e-01 -1.000000000000000021e-02)
(5.870509999999999895e-01 7.117719999999999603e-01 -1.000000000000000021e-02)
(5.974599999999999911e-01 7.039809999999999679e-01 -1.000000000000000021e-02)
(6.072380000000000555e-01 6.954179999999999806e-01 -1.000000000000000021e-02)